                                  MODFLOW-2000
      U.S. GEOLOGICAL SURVEY MODULAR FINITE-DIFFERENCE GROUND-WATER FLOW MODEL
                    VERSION 1.19.01 03/25/2010 CHPRC Build 7


 This model run produced both GLOBAL and LIST files.  This is the LIST file.

 
 # BAS6 package for  MODFLOW-2000, generated by Flopy.                           
 THE FREE FORMAT OPTION HAS BEEN SELECTED
    1 LAYERS        51 ROWS        51 COLUMNS
   11 STRESS PERIOD(S) IN SIMULATION

 BAS6 -- BASIC PACKAGE, VERSION 6, 1/11/2000 INPUT READ FROM UNIT   13
          5 ELEMENTS IN IR ARRAY ARE USED BY BAS

 CHD6 -- TIME-VARIANT SPECIFIED-HEAD PACKAGE, VERSION 6, 1/11/2000
 INPUT READ FROM UNIT   24
 # CHD package for  MODFLOW-2000, generated by Flopy.
 No named parameters
 MAXIMUM OF    102 TIME-VARIANT SPECIFIED-HEAD CELLS AT ONE TIME
        510 ELEMENTS IN RX ARRAY ARE USED BY CHD

        510  ELEMENTS OF RX ARRAY USED OUT OF        510
          0  ELEMENTS OF RZ ARRAY USED OUT OF          1
          5  ELEMENTS OF IR ARRAY USED OUT OF          5
1
 # BAS6 package for  MODFLOW-2000, generated by Flopy.                           
                                                                                 



                     BOUNDARY ARRAY FOR LAYER   1
 READING ON UNIT   13 WITH FORMAT: (51I10)             

 AQUIFER HEAD WILL BE SET TO -999.99     AT ALL NO-FLOW NODES (IBOUND=0).



                       INITIAL HEAD FOR LAYER   1
 READING ON UNIT   13 WITH FORMAT: (51E15.6)           
 # OC package for  MODFLOW-2000, generated by Flopy.

 OUTPUT CONTROL IS SPECIFIED ONLY AT TIME STEPS FOR WHICH OUTPUT IS DESIRED
 COMPACT CELL-BY-CELL BUDGET FILES WILL BE WRITTEN
 AUXILIARY DATA WILL BE SAVED IN CELL-BY-CELL BUDGET FILES
 HEAD PRINT FORMAT CODE IS   0    DRAWDOWN PRINT FORMAT CODE IS   0
 HEADS WILL BE SAVED ON UNIT   51    DRAWDOWNS WILL BE SAVED ON UNIT    0
1
                            STRESS PERIOD NO.    1, LENGTH =   365.2500    
                            -----------------------------------------------

                              NUMBER OF TIME STEPS =     1

                               MULTIPLIER FOR DELT =     1.000

                            INITIAL TIME STEP SIZE =   365.2500    

 CHD NO.   LAYER   ROW   COL    START HEAD        END HEAD         
 ------------------------------------------------------------------
      1      1      1      1       100.0           100.0    
      2      1      1     51       100.0           100.0    
      3      1      2      1       99.20           99.20    
      4      1      2     51       99.20           99.20    
      5      1      3      1       98.40           98.40    
      6      1      3     51       98.40           98.40    
      7      1      4      1       97.60           97.60    
      8      1      4     51       97.60           97.60    
      9      1      5      1       96.80           96.80    
     10      1      5     51       96.80           96.80    
     11      1      6      1       96.00           96.00    
     12      1      6     51       96.00           96.00    
     13      1      7      1       95.20           95.20    
     14      1      7     51       95.20           95.20    
     15      1      8      1       94.40           94.40    
     16      1      8     51       94.40           94.40    
     17      1      9      1       93.60           93.60    
     18      1      9     51       93.60           93.60    
     19      1     10      1       92.80           92.80    
     20      1     10     51       92.80           92.80    
     21      1     11      1       92.00           92.00    
     22      1     11     51       92.00           92.00    
     23      1     12      1       91.20           91.20    
     24      1     12     51       91.20           91.20    
     25      1     13      1       90.40           90.40    
     26      1     13     51       90.40           90.40    
     27      1     14      1       89.60           89.60    
     28      1     14     51       89.60           89.60    
     29      1     15      1       88.80           88.80    
     30      1     15     51       88.80           88.80    
     31      1     16      1       88.00           88.00    
     32      1     16     51       88.00           88.00    
     33      1     17      1       87.20           87.20    
     34      1     17     51       87.20           87.20    
     35      1     18      1       86.40           86.40    
     36      1     18     51       86.40           86.40    
     37      1     19      1       85.60           85.60    
     38      1     19     51       85.60           85.60    
     39      1     20      1       84.80           84.80    
     40      1     20     51       84.80           84.80    
     41      1     21      1       84.00           84.00    
     42      1     21     51       84.00           84.00    
     43      1     22      1       83.20           83.20    
     44      1     22     51       83.20           83.20    
     45      1     23      1       82.40           82.40    
     46      1     23     51       82.40           82.40    
     47      1     24      1       81.60           81.60    
     48      1     24     51       81.60           81.60    
     49      1     25      1       80.80           80.80    
     50      1     25     51       80.80           80.80    
     51      1     26      1       80.00           80.00    
     52      1     26     51       80.00           80.00    
     53      1     27      1       79.20           79.20    
     54      1     27     51       79.20           79.20    
     55      1     28      1       78.40           78.40    
     56      1     28     51       78.40           78.40    
     57      1     29      1       77.60           77.60    
     58      1     29     51       77.60           77.60    
     59      1     30      1       76.80           76.80    
     60      1     30     51       76.80           76.80    
     61      1     31      1       76.00           76.00    
     62      1     31     51       76.00           76.00    
     63      1     32      1       75.20           75.20    
     64      1     32     51       75.20           75.20    
     65      1     33      1       74.40           74.40    
     66      1     33     51       74.40           74.40    
     67      1     34      1       73.60           73.60    
     68      1     34     51       73.60           73.60    
     69      1     35      1       72.80           72.80    
     70      1     35     51       72.80           72.80    
     71      1     36      1       72.00           72.00    
     72      1     36     51       72.00           72.00    
     73      1     37      1       71.20           71.20    
     74      1     37     51       71.20           71.20    
     75      1     38      1       70.40           70.40    
     76      1     38     51       70.40           70.40    
     77      1     39      1       69.60           69.60    
     78      1     39     51       69.60           69.60    
     79      1     40      1       68.80           68.80    
     80      1     40     51       68.80           68.80    
     81      1     41      1       68.00           68.00    
     82      1     41     51       68.00           68.00    
     83      1     42      1       67.20           67.20    
     84      1     42     51       67.20           67.20    
     85      1     43      1       66.40           66.40    
     86      1     43     51       66.40           66.40    
     87      1     44      1       65.60           65.60    
     88      1     44     51       65.60           65.60    
     89      1     45      1       64.80           64.80    
     90      1     45     51       64.80           64.80    
     91      1     46      1       64.00           64.00    
     92      1     46     51       64.00           64.00    
     93      1     47      1       63.20           63.20    
     94      1     47     51       63.20           63.20    
     95      1     48      1       62.40           62.40    
     96      1     48     51       62.40           62.40    
     97      1     49      1       61.60           61.60    
     98      1     49     51       61.60           61.60    
     99      1     50      1       60.80           60.80    
    100      1     50     51       60.80           60.80    
    101      1     51      1       60.00           60.00    
    102      1     51     51       60.00           60.00    


    102 TIME-VARIANT SPECIFIED-HEAD CELLS
 
 SOLVING FOR HEAD 

 OUTPUT CONTROL FOR STRESS PERIOD    1   TIME STEP   1
    PRINT HEAD FOR ALL LAYERS
    PRINT BUDGET
    SAVE HEAD FOR ALL LAYERS
    SAVE BUDGET
 UBDSV2 SAVING "   CONSTANT HEAD" ON UNIT  53 AT TIME STEP  1, STRESS PERIOD   1
 UBDSV1 SAVING "FLOW RIGHT FACE " ON UNIT  53 AT TIME STEP  1, STRESS PERIOD   1
 UBDSV1 SAVING "FLOW FRONT FACE " ON UNIT  53 AT TIME STEP  1, STRESS PERIOD   1
1
              HEAD IN LAYER   1 AT END OF TIME STEP   1 IN STRESS PERIOD    1
  ---------------------------------------------------------------------------

            1           2           3           4           5           6           7           8           9          10
           11          12          13          14          15          16          17          18          19          20
           21          22          23          24          25          26          27          28          29          30
           31          32          33          34          35          36          37          38          39          40
           41          42          43          44          45          46          47          48          49          50
           51
 ........................................................................................................................
   1    100.0       100.0       100.0       100.0       100.0       100.0       100.0       100.0       100.0       100.0    
        100.0       100.0       100.0       100.0       100.0       100.0       100.0       100.0       100.0       100.0    
        100.0       100.0       100.0       100.0       100.0       100.0       100.0       100.0       100.0       100.0    
        100.0       100.0       100.0       100.0       100.0       100.0       100.0       100.0       100.0       100.0    
        100.0       100.0       100.0       100.0       100.0       100.0       100.0       100.0       100.0       100.0    
        100.0    
   2    99.20       99.14       99.07       99.01       98.94       98.88       98.81       98.75       98.69       98.63    
        98.59       98.58       98.57       98.57       98.57       98.57       98.57       98.58       98.59       98.60    
        98.62       98.64       98.66       98.69       98.72       98.75       98.78       98.82       98.87       98.91    
        98.96       99.01       99.05       99.06       99.07       99.08       99.10       99.11       99.12       99.13    
        99.14       99.14       99.15       99.16       99.17       99.17       99.18       99.18       99.19       99.20    
        99.20    
   3    98.40       98.27       98.14       98.01       97.88       97.75       97.62       97.50       97.37       97.25    
        97.18       97.16       97.15       97.14       97.14       97.14       97.15       97.16       97.18       97.21    
        97.24       97.28       97.32       97.37       97.43       97.49       97.57       97.65       97.73       97.83    
        97.92       98.03       98.09       98.11       98.14       98.17       98.20       98.22       98.24       98.26    
        98.27       98.29       98.31       98.32       98.33       98.35       98.36       98.37       98.38       98.39    
        98.40    
   4    97.60       97.41       97.21       97.02       96.82       96.63       96.43       96.24       96.05       95.87    
        95.76       95.73       95.71       95.70       95.70       95.70       95.71       95.73       95.76       95.80    
        95.85       95.90       95.97       96.05       96.13       96.23       96.34       96.46       96.59       96.73    
        96.88       97.04       97.13       97.17       97.21       97.25       97.30       97.33       97.36       97.39    
        97.41       97.44       97.46       97.48       97.50       97.52       97.54       97.56       97.57       97.59    
        97.60    
   5    96.80       96.54       96.28       96.02       95.76       95.50       95.24       94.98       94.73       94.48    
        94.34       94.30       94.27       94.25       94.25       94.25       94.27       94.30       94.34       94.39    
        94.45       94.52       94.61       94.71       94.83       94.96       95.10       95.26       95.44       95.63    
        95.83       96.04       96.17       96.22       96.28       96.33       96.39       96.44       96.48       96.52    
        96.55       96.58       96.62       96.64       96.67       96.70       96.72       96.74       96.76       96.78    
        96.80    
   6    96.00       95.68       95.35       95.03       94.70       94.38       94.05       93.72       93.40       93.09    
        92.90       92.85       92.82       92.80       92.79       92.80       92.82       92.85       92.90       92.96    
        93.04       93.13       93.24       93.37       93.51       93.67       93.85       94.05       94.27       94.51    
        94.77       95.04       95.20       95.27       95.34       95.41       95.49       95.55       95.60       95.65    
        95.69       95.73       95.77       95.81       95.84       95.87       95.90       95.93       95.95       95.98    
        96.00    
   7    95.20       94.81       94.43       94.04       93.65       93.25       92.86       92.46       92.07       91.68    
        91.45       91.40       91.35       91.33       91.32       91.32       91.35       91.39       91.45       91.52    
        91.61       91.72       91.85       92.00       92.17       92.36       92.58       92.82       93.09       93.38    
        93.69       94.02       94.23       94.31       94.40       94.49       94.58       94.66       94.72       94.78    
        94.84       94.89       94.93       94.98       95.02       95.05       95.09       95.12       95.15       95.17    
        95.20    
   8    94.40       93.95       93.50       93.05       92.59       92.13       91.66       91.19       90.72       90.26    
        89.99       89.92       89.87       89.84       89.83       89.84       89.86       89.91       89.98       90.06    
        90.17       90.29       90.44       90.61       90.81       91.03       91.28       91.57       91.88       92.22    
        92.60       92.99       93.24       93.34       93.45       93.56       93.68       93.78       93.85       93.92    
        93.98       94.04       94.10       94.15       94.20       94.24       94.28       94.31       94.34       94.37    
        94.40    
   9    93.60       93.09       92.58       92.06       91.54       91.01       90.47       89.92       89.37       88.83    
        88.51       88.43       88.37       88.33       88.32       88.33       88.36       88.41       88.49       88.58    
        88.70       88.84       89.01       89.20       89.42       89.67       89.96       90.28       90.64       91.04    
        91.48       91.95       92.25       92.36       92.49       92.63       92.77       92.89       92.97       93.06    
        93.13       93.20       93.27       93.33       93.38       93.43       93.47       93.50       93.54       93.57    
        93.60    
  10    92.80       92.23       91.66       91.09       90.50       89.90       89.28       88.66       88.02       87.38    
        87.01       86.91       86.84       86.80       86.79       86.80       86.84       86.90       86.98       87.08    
        87.21       87.37       87.55       87.76       88.00       88.28       88.60       88.95       89.36       89.81    
        90.32       90.88       91.23       91.37       91.53       91.70       91.87       92.01       92.11       92.20    
        92.29       92.37       92.44       92.51       92.57       92.62       92.66       92.70       92.74       92.77    
        92.80    
  11    92.00       91.38       90.76       90.12       89.47       88.80       88.11       87.40       86.66       85.91    
        85.47       85.36       85.29       85.24       85.23       85.25       85.29       85.35       85.44       85.56    
        85.70       85.87       86.06       86.29       86.55       86.85       87.19       87.58       88.03       88.54    
        89.12       89.77       90.19       90.37       90.56       90.76       90.96       91.13       91.24       91.35    
        91.45       91.55       91.63       91.70       91.76       91.82       91.86       91.90       91.94       91.97    
        92.00    
  12    91.20       90.53       89.86       89.17       88.46       87.73       86.97       86.16       85.32       84.43    
        83.91       83.78       83.70       83.66       83.65       83.67       83.71       83.79       83.89       84.01    
        84.16       84.34       84.54       84.78       85.06       85.38       85.74       86.15       86.63       87.19    
        87.84       88.61       89.12       89.34       89.58       89.82       90.06       90.25       90.39       90.52    
        90.63       90.73       90.82       90.90       90.97       91.02       91.07       91.11       91.14       91.17    
        91.20    
  13    90.40       89.69       88.97       88.23       87.48       86.69       85.86       84.97       84.01       82.95    
        82.29       82.15       82.07       82.04       82.03       82.06       82.12       82.20       82.30       82.43    
        82.59       82.78       82.99       83.24       83.53       83.86       84.23       84.66       85.16       85.75    
        86.46       87.34       88.01       88.29       88.59       88.89       89.17       89.39       89.55       89.69    
        89.81       89.93       90.02       90.11       90.18       90.24       90.29       90.32       90.35       90.38    
        90.40    
  14    89.60       88.85       88.09       87.32       86.53       85.70       84.82       83.86       82.78       81.53    
        80.59       80.46       80.40       80.38       80.39       80.43       80.49       80.58       80.69       80.83    
        80.99       81.19       81.41       81.67       81.96       82.29       82.67       83.10       83.60       84.18    
        84.90       85.87       86.83       87.23       87.61       87.96       88.29       88.54       88.72       88.88    
        89.01       89.14       89.24       89.33       89.41       89.47       89.51       89.55       89.57       89.59    
        89.60    
  15    88.80       88.02       87.23       86.43       85.61       84.76       83.85       82.86       81.74       80.40    
        79.46       79.41       79.38       79.37       79.39       79.43       79.50       79.59       79.71       79.85    
        80.02       80.21       80.44       80.70       80.99       81.32       81.70       82.12       82.61       83.16    
        83.81       84.60       85.57       86.18       86.65       87.06       87.44       87.72       87.91       88.08    
        88.23       88.36       88.48       88.57       88.65       88.71       88.75       88.78       88.79       88.80    
        88.80    
  16    88.00       87.19       86.38       85.56       84.73       83.86       82.96       81.99       80.93       79.75    
        79.07       79.03       79.01       79.01       79.03       79.08       79.15       79.24       79.36       79.50    
        79.67       79.86       80.09       80.34       80.63       80.96       81.33       81.74       82.20       82.73    
        83.32       83.98       84.68       85.27       85.76       86.20       86.60       86.91       87.12       87.30    
        87.47       87.61       87.73       87.83       87.91       87.96       88.00       88.02       88.02       88.02    
        88.00    
  17    87.20       86.37       85.54       84.71       83.87       83.02       82.13       81.21       80.24       79.21    
        78.66       78.63       78.62       78.63       78.65       78.70       78.77       78.86       78.98       79.12    
        79.29       79.48       79.70       79.95       80.23       80.55       80.91       81.30       81.74       82.23    
        82.76       83.33       83.90       84.44       84.93       85.38       85.80       86.13       86.35       86.55    
        86.73       86.88       87.00       87.11       87.18       87.24       87.27       87.28       87.27       87.24    
        87.20    
  18    86.40       85.55       84.71       83.87       83.03       82.19       81.35       80.49       79.61       78.71    
        78.24       78.22       78.21       78.22       78.25       78.30       78.37       78.46       78.58       78.72    
        78.88       79.07       79.28       79.53       79.80       80.11       80.45       80.82       81.23       81.68    
        82.16       82.66       83.17       83.66       84.13       84.59       85.02       85.37       85.61       85.82    
        86.01       86.17       86.30       86.41       86.49       86.54       86.56       86.56       86.53       86.48    
        86.40    
  19    85.60       84.73       83.87       83.02       82.19       81.38       80.58       79.78       79.00       78.21    
        77.81       77.79       77.79       77.80       77.83       77.88       77.95       78.04       78.15       78.29    
        78.44       78.63       78.84       79.07       79.34       79.63       79.95       80.31       80.69       81.10    
        81.54       81.99       82.45       82.91       83.36       83.81       84.26       84.63       84.89       85.12    
        85.32       85.49       85.63       85.73       85.81       85.86       85.88       85.87       85.82       85.73    
        85.60    
  20    84.80       83.90       83.01       82.15       81.33       80.55       79.80       79.08       78.38       77.70    
        77.36       77.35       77.35       77.36       77.39       77.44       77.51       77.59       77.70       77.83    
        77.99       78.16       78.36       78.59       78.84       79.12       79.43       79.76       80.12       80.50    
        80.90       81.31       81.73       82.16       82.59       83.02       83.48       83.92       84.21       84.46    
        84.66       84.84       84.98       85.09       85.17       85.22       85.24       85.22       85.15       85.02    
        84.80    
  21    84.00       83.04       82.12       81.25       80.44       79.69       78.99       78.34       77.74       77.18    
        76.90       76.89       76.89       76.91       76.94       76.98       77.05       77.13       77.23       77.36    
        77.50       77.67       77.87       78.08       78.32       78.59       78.88       79.19       79.52       79.87    
        80.24       80.62       81.02       81.41       81.81       82.21       82.63       83.06       83.38       83.64    
        83.85       84.03       84.18       84.29       84.38       84.43       84.45       84.42       84.36       84.23    
        84.00    
  22    83.20       82.16       81.18       80.29       79.49       78.77       78.13       77.56       77.06       76.63    
        76.43       76.42       76.42       76.44       76.46       76.50       76.56       76.64       76.74       76.86    
        77.00       77.16       77.35       77.55       77.78       78.03       78.30       78.59       78.91       79.23    
        79.58       79.93       80.29       80.66       81.03       81.39       81.76       82.12       82.42       82.67    
        82.89       83.07       83.22       83.34       83.43       83.49       83.51       83.50       83.44       83.34    
        83.20    
  23    82.40       81.21       80.16       79.25       78.46       77.78       77.20       76.71       76.32       76.04    
        75.94       75.94       75.94       75.95       75.97       76.01       76.06       76.14       76.23       76.34    
        76.47       76.63       76.80       77.00       77.21       77.45       77.71       77.98       78.27       78.58    
        78.90       79.23       79.56       79.90       80.24       80.58       80.91       81.22       81.50       81.75    
        81.96       82.15       82.30       82.42       82.52       82.58       82.61       82.61       82.57       82.50    
        82.40    
  24    81.60       80.11       78.99       78.08       77.32       76.68       76.16       75.76       75.48       75.37    
        75.46       75.46       75.46       75.46       75.47       75.50       75.54       75.61       75.69       75.80    
        75.92       76.07       76.24       76.42       76.63       76.85       77.09       77.35       77.63       77.91    
        78.21       78.52       78.83       79.14       79.46       79.77       80.07       80.36       80.62       80.86    
        81.07       81.25       81.40       81.53       81.63       81.71       81.75       81.76       81.74       81.68    
        81.60    
  25    80.80       79.35       78.26       77.38       76.65       76.05       75.56       75.19       74.95       74.86    
        74.97       74.98       74.97       74.95       74.95       74.97       75.01       75.06       75.14       75.24    
        75.36       75.50       75.65       75.83       76.02       76.24       76.46       76.71       76.97       77.23    
        77.51       77.80       78.09       78.39       78.68       78.97       79.25       79.51       79.76       79.99    
        80.20       80.38       80.53       80.67       80.78       80.86       80.92       80.94       80.94       80.89    
        80.80    
  26    80.00       78.93       77.98       77.16       76.46       75.88       75.39       75.01       74.74       74.59    
        74.54       74.48       74.42       74.37       74.35       74.35       74.38       74.42       74.49       74.59    
        74.70       74.83       74.97       75.14       75.33       75.52       75.74       75.97       76.21       76.46    
        76.72       76.99       77.26       77.53       77.81       78.08       78.34       78.59       78.83       79.04    
        79.24       79.43       79.59       79.73       79.84       79.94       80.01       80.06       80.08       80.06    
        80.00    
  27    79.20       78.37       77.57       76.83       76.17       75.59       75.11       74.72       74.43       74.21    
        74.06       73.92       73.79       73.70       73.65       73.64       73.65       73.69       73.76       73.84    
        73.94       74.06       74.20       74.36       74.53       74.72       74.92       75.13       75.36       75.59    
        75.84       76.08       76.34       76.59       76.84       77.09       77.34       77.57       77.80       78.01    
        78.21       78.39       78.55       78.70       78.83       78.94       79.03       79.11       79.16       79.19    
        79.20    
  28    78.40       77.79       77.09       76.41       75.78       75.22       74.74       74.35       74.03       73.77    
        73.56       73.36       73.11       72.99       72.92       72.90       72.91       72.94       73.00       73.07    
        73.17       73.28       73.41       73.56       73.72       73.90       74.09       74.29       74.50       74.72    
        74.94       75.17       75.41       75.65       75.88       76.12       76.35       76.57       76.79       76.99    
        77.18       77.37       77.53       77.69       77.83       77.96       78.07       78.17       78.26       78.34    
        78.40    
  29    77.60       77.03       76.37       75.71       75.09       74.54       74.06       73.66       73.33       73.05    
        72.81       72.57       72.32       72.21       72.15       72.13       72.13       72.16       72.22       72.29    
        72.38       72.49       72.61       72.75       72.90       73.07       73.24       73.43       73.63       73.83    
        74.04       74.26       74.48       74.70       74.93       75.15       75.36       75.58       75.78       75.98    
        76.17       76.36       76.53       76.69       76.85       76.99       77.13       77.26       77.38       77.49    
        77.60    
  30    76.80       76.10       75.40       74.73       74.12       73.56       73.08       72.67       72.33       72.05    
        71.82       71.61       71.46       71.39       71.35       71.33       71.34       71.37       71.42       71.48    
        71.57       71.67       71.79       71.92       72.07       72.22       72.39       72.57       72.75       72.94    
        73.14       73.34       73.55       73.76       73.97       74.18       74.38       74.59       74.79       74.98    
        75.17       75.36       75.53       75.71       75.87       76.03       76.19       76.35       76.50       76.65    
        76.80    
  31    76.00       75.18       74.41       73.70       73.07       72.51       72.03       71.62       71.28       71.01    
        70.80       70.65       70.58       70.54       70.52       70.51       70.52       70.55       70.60       70.66    
        70.75       70.84       70.96       71.08       71.22       71.37       71.53       71.69       71.87       72.05    
        72.23       72.42       72.62       72.81       73.01       73.21       73.41       73.61       73.80       73.99    
        74.18       74.36       74.55       74.73       74.90       75.08       75.26       75.44       75.62       75.81    
        76.00    
  32    75.20       74.20       73.35       72.60       71.95       71.39       70.90       70.50       70.16       69.90    
        69.72       69.63       69.68       69.68       69.67       69.67       69.68       69.71       69.76       69.82    
        69.91       70.00       70.11       70.23       70.36       70.51       70.66       70.81       70.98       71.14    
        71.32       71.50       71.68       71.87       72.05       72.24       72.43       72.62       72.81       73.00    
        73.19       73.37       73.56       73.75       73.93       74.12       74.32       74.53       74.74       74.97    
        75.20    
  33    74.40       73.36       72.47       71.71       71.05       70.48       70.00       69.60       69.27       69.02    
        68.84       68.76       68.82       68.82       68.81       68.81       68.82       68.86       68.90       68.97    
        69.05       69.15       69.25       69.37       69.50       69.63       69.78       69.92       70.08       70.24    
        70.40       70.57       70.74       70.92       71.10       71.28       71.46       71.64       71.83       72.01    
        72.20       72.38       72.57       72.76       72.96       73.16       73.38       73.61       73.85       74.12    
        74.40    
  34    73.60       72.63       71.77       71.01       70.36       69.80       69.32       68.92       68.60       68.34    
        68.16       68.05       68.00       67.97       67.95       67.94       67.95       67.98       68.03       68.10    
        68.18       68.28       68.39       68.50       68.63       68.76       68.89       69.03       69.18       69.33    
        69.48       69.64       69.80       69.97       70.14       70.31       70.48       70.66       70.84       71.02    
        71.21       71.39       71.58       71.78       71.98       72.19       72.42       72.67       72.95       73.26    
        73.60    
  35    72.80       71.82       70.95       70.20       69.57       69.02       68.56       68.18       67.86       67.60    
        67.41       67.27       67.18       67.11       67.07       67.06       67.06       67.09       67.14       67.21    
        67.30       67.40       67.51       67.62       67.75       67.87       68.00       68.13       68.27       68.41    
        68.55       68.70       68.85       69.01       69.17       69.34       69.50       69.68       69.85       70.03    
        70.21       70.40       70.59       70.78       70.99       71.21       71.44       71.70       72.00       72.36    
        72.80    
  36    72.00       70.88       70.01       69.29       68.68       68.17       67.73       67.36       67.05       66.80    
        66.59       66.44       66.32       66.23       66.18       66.15       66.15       66.17       66.23       66.31    
        66.40       66.51       66.62       66.74       66.86       66.98       67.10       67.23       67.36       67.49    
        67.62       67.76       67.91       68.05       68.21       68.36       68.52       68.69       68.86       69.03    
        69.21       69.40       69.58       69.78       69.99       70.20       70.44       70.69       71.00       71.39    
        72.00    
  37    71.20       70.14       69.31       68.64       68.07       67.58       67.17       66.81       66.51       66.26    
        66.05       65.89       65.76       65.66       65.59       65.56       65.55       65.57       65.64       65.74    
        65.85       65.97       66.09       66.21       66.33       66.45       66.57       66.69       66.81       66.93    
        67.06       67.20       67.33       67.48       67.62       67.77       67.93       68.09       68.26       68.43    
        68.61       68.79       68.98       69.17       69.38       69.59       69.82       70.06       70.34       70.68    
        71.20    
  38    70.40       69.59       68.87       68.26       67.72       67.26       66.86       66.52       66.23       65.99    
        65.78       65.62       65.48       65.39       65.32       65.28       65.27       65.29       65.35       65.46    
        65.65       65.79       65.92       66.04       66.15       66.27       66.39       66.50       66.62       66.75    
        66.87       67.00       67.14       67.28       67.42       67.57       67.73       67.89       68.06       68.23    
        68.40       68.59       68.77       68.96       69.16       69.37       69.59       69.82       70.06       70.28    
        70.40    
  39    69.60       68.95       68.34       67.79       67.31       66.88       66.51       66.19       65.91       65.67    
        65.48       65.31       65.18       65.08       65.01       64.97       64.95       64.96       65.00       65.08    
        65.27       65.43       65.55       65.67       65.77       65.88       65.99       66.10       66.21       66.33    
        66.45       66.57       66.70       66.84       66.98       67.13       67.28       67.44       67.60       67.77    
        67.95       68.13       68.31       68.49       68.68       68.88       69.08       69.28       69.47       69.61    
        69.60    
  40    68.80       68.26       67.74       67.26       66.83       66.44       66.10       65.80       65.54       65.32    
        65.13       64.98       64.85       64.75       64.68       64.63       64.61       64.61       64.63       64.67    
        64.77       64.90       65.00       65.10       65.19       65.29       65.38       65.48       65.58       65.68    
        65.79       65.91       66.03       66.16       66.29       66.43       66.58       66.74       66.90       67.07    
        67.24       67.41       67.59       67.76       67.94       68.12       68.29       68.46       68.61       68.73    
        68.80    
  41    68.00       67.54       67.10       66.69       66.31       65.96       65.65       65.38       65.14       64.94    
        64.76       64.61       64.49       64.39       64.32       64.27       64.24       64.22       64.23       64.25    
        64.31       64.38       64.46       64.53       64.61       64.69       64.77       64.85       64.94       65.03    
        65.13       65.24       65.35       65.47       65.59       65.73       65.88       66.03       66.20       66.37    
        66.53       66.70       66.87       67.03       67.19       67.35       67.51       67.66       67.79       67.91    
        68.00    
  42    67.20       66.81       66.44       66.08       65.75       65.45       65.17       64.93       64.71       64.52    
        64.36       64.22       64.11       64.01       63.94       63.89       63.85       63.83       63.82       63.82    
        63.84       63.87       63.92       63.97       64.02       64.09       64.15       64.22       64.30       64.38    
        64.47       64.56       64.66       64.77       64.89       65.02       65.16       65.32       65.49       65.66    
        65.83       65.99       66.15       66.30       66.45       66.59       66.73       66.87       66.99       67.10    
        67.20    
  43    66.40       66.07       65.76       65.45       65.16       64.90       64.66       64.44       64.25       64.08    
        63.93       63.80       63.70       63.61       63.54       63.49       63.45       63.42       63.40       63.38    
        63.36       63.36       63.37       63.40       63.43       63.48       63.53       63.59       63.65       63.72    
        63.80       63.88       63.97       64.06       64.17       64.29       64.43       64.59       64.78       64.96    
        65.13       65.28       65.43       65.58       65.71       65.84       65.97       66.09       66.20       66.30    
        66.40    
  44    65.60       65.33       65.06       64.80       64.56       64.33       64.12       63.93       63.76       63.61    
        63.48       63.37       63.27       63.19       63.13       63.07       63.03       63.00       62.97       62.93    
        62.86       62.82       62.81       62.82       62.84       62.87       62.90       62.95       63.00       63.05    
        63.12       63.19       63.26       63.35       63.44       63.55       63.68       63.84       64.07       64.27    
        64.43       64.59       64.73       64.86       64.98       65.10       65.21       65.31       65.41       65.51    
        65.60    
  45    64.80       64.57       64.35       64.14       63.93       63.74       63.56       63.40       63.26       63.13    
        63.02       62.92       62.83       62.76       62.70       62.65       62.61       62.57       62.54       62.50    
        62.42       62.37       62.34       62.34       62.35       62.37       62.40       62.43       62.47       62.52    
        62.57       62.63       62.69       62.76       62.85       62.94       63.05       63.18       63.40       63.60    
        63.76       63.90       64.03       64.14       64.25       64.36       64.45       64.54       64.63       64.72    
        64.80    
  46    64.00       63.82       63.64       63.46       63.29       63.14       62.99       62.86       62.74       62.63    
        62.53       62.45       62.38       62.32       62.27       62.22       62.18       62.15       62.12       62.08    
        62.04       62.00       61.98       61.97       61.97       61.99       62.01       62.04       62.07       62.11    
        62.15       62.20       62.26       62.32       62.39       62.47       62.56       62.66       62.81       62.97    
        63.11       63.23       63.34       63.44       63.53       63.62       63.70       63.78       63.86       63.93    
        64.00    
  47    63.20       63.06       62.91       62.78       62.65       62.52       62.41       62.30       62.20       62.12    
        62.04       61.97       61.92       61.87       61.82       61.78       61.75       61.72       61.70       61.67    
        61.64       61.61       61.60       61.59       61.59       61.60       61.62       61.64       61.66       61.69    
        61.73       61.77       61.81       61.86       61.92       61.98       62.05       62.13       62.24       62.36    
        62.47       62.57       62.66       62.74       62.82       62.89       62.96       63.02       63.08       63.14    
        63.20    
  48    62.40       62.29       62.19       62.09       61.99       61.90       61.81       61.73       61.66       61.60    
        61.54       61.49       61.44       61.40       61.37       61.34       61.32       61.29       61.27       61.26    
        61.24       61.22       61.20       61.20       61.20       61.21       61.22       61.23       61.25       61.27    
        61.30       61.33       61.36       61.40       61.45       61.49       61.54       61.60       61.67       61.76    
        61.84       61.92       61.99       62.05       62.11       62.16       62.21       62.26       62.31       62.36    
        62.40    
  49    61.60       61.53       61.46       61.39       61.33       61.27       61.21       61.16       61.11       61.07    
        61.03       61.00       60.97       60.94       60.92       60.90       60.88       60.86       60.85       60.84    
        60.83       60.81       60.81       60.80       60.80       60.81       60.81       60.82       60.84       60.85    
        60.87       60.89       60.91       60.94       60.97       61.00       61.03       61.07       61.11       61.17    
        61.23       61.28       61.32       61.36       61.40       61.44       61.48       61.51       61.54       61.57    
        61.60    
  50    60.80       60.77       60.73       60.70       60.67       60.64       60.61       60.58       60.56       60.54    
        60.52       60.50       60.48       60.47       60.46       60.45       60.44       60.43       60.43       60.42    
        60.41       60.41       60.40       60.40       60.40       60.40       60.41       60.41       60.42       60.43    
        60.44       60.45       60.46       60.47       60.48       60.50       60.52       60.53       60.56       60.59    
        60.61       60.64       60.66       60.68       60.70       60.72       60.74       60.75       60.77       60.78    
        60.80    
  51    60.00       60.00       60.00       60.00       60.00       60.00       60.00       60.00       60.00       60.00    
        60.00       60.00       60.00       60.00       60.00       60.00       60.00       60.00       60.00       60.00    
        60.00       60.00       60.00       60.00       60.00       60.00       60.00       60.00       60.00       60.00    
        60.00       60.00       60.00       60.00       60.00       60.00       60.00       60.00       60.00       60.00    
        60.00       60.00       60.00       60.00       60.00       60.00       60.00       60.00       60.00       60.00    
        60.00    

 HEAD WILL BE SAVED ON UNIT   51 AT END OF TIME STEP   1, STRESS PERIOD    1
1
  VOLUMETRIC BUDGET FOR ENTIRE MODEL AT END OF TIME STEP  1 IN STRESS PERIOD   1
  ------------------------------------------------------------------------------

     CUMULATIVE VOLUMES      L**3       RATES FOR THIS TIME STEP      L**3/T
     ------------------                 ------------------------

           IN:                                      IN:
           ---                                      ---
             STORAGE =           0.0000               STORAGE =           0.0000
       CONSTANT HEAD =    79869296.0000         CONSTANT HEAD =      218670.2190

            TOTAL IN =    79869296.0000              TOTAL IN =      218670.2190

          OUT:                                     OUT:
          ----                                     ----
             STORAGE =           0.0000               STORAGE =           0.0000
       CONSTANT HEAD =    79869296.0000         CONSTANT HEAD =      218670.2190

           TOTAL OUT =    79869296.0000             TOTAL OUT =      218670.2190

            IN - OUT =           0.0000              IN - OUT =           0.0000

 PERCENT DISCREPANCY =           0.00     PERCENT DISCREPANCY =           0.00






          TIME SUMMARY AT END OF TIME STEP   1 IN STRESS PERIOD    1
                    SECONDS     MINUTES      HOURS       DAYS        YEARS
                    -----------------------------------------------------------
   TIME STEP LENGTH 3.15576E+07 5.25960E+05  8766.0      365.25      1.0000    
 STRESS PERIOD TIME 3.15576E+07 5.25960E+05  8766.0      365.25      1.0000    
         TOTAL TIME 3.15576E+07 5.25960E+05  8766.0      365.25      1.0000    
1
1
                            STRESS PERIOD NO.    2, LENGTH =   365.2500    
                            -----------------------------------------------

                              NUMBER OF TIME STEPS =     1

                               MULTIPLIER FOR DELT =     1.000

                            INITIAL TIME STEP SIZE =   365.2500    

 REUSING NON-PARAMETER SPECIFIED-HEAD DATA FROM LAST STRESS PERIOD


    102 TIME-VARIANT SPECIFIED-HEAD CELLS
 
 SOLVING FOR HEAD 

 OUTPUT CONTROL FOR STRESS PERIOD    2   TIME STEP   1
    PRINT HEAD FOR ALL LAYERS
    PRINT BUDGET
    SAVE HEAD FOR ALL LAYERS
    SAVE BUDGET
 UBDSV2 SAVING "   CONSTANT HEAD" ON UNIT  53 AT TIME STEP  1, STRESS PERIOD   2
 UBDSV1 SAVING "FLOW RIGHT FACE " ON UNIT  53 AT TIME STEP  1, STRESS PERIOD   2
 UBDSV1 SAVING "FLOW FRONT FACE " ON UNIT  53 AT TIME STEP  1, STRESS PERIOD   2
1
              HEAD IN LAYER   1 AT END OF TIME STEP   1 IN STRESS PERIOD    2
  ---------------------------------------------------------------------------

            1           2           3           4           5           6           7           8           9          10
           11          12          13          14          15          16          17          18          19          20
           21          22          23          24          25          26          27          28          29          30
           31          32          33          34          35          36          37          38          39          40
           41          42          43          44          45          46          47          48          49          50
           51
 ........................................................................................................................
   1    100.0       100.0       100.0       100.0       100.0       100.0       100.0       100.0       100.0       100.0    
        100.0       100.0       100.0       100.0       100.0       100.0       100.0       100.0       100.0       100.0    
        100.0       100.0       100.0       100.0       100.0       100.0       100.0       100.0       100.0       100.0    
        100.0       100.0       100.0       100.0       100.0       100.0       100.0       100.0       100.0       100.0    
        100.0       100.0       100.0       100.0       100.0       100.0       100.0       100.0       100.0       100.0    
        100.0    
   2    99.20       99.14       99.07       99.01       98.94       98.88       98.81       98.75       98.69       98.63    
        98.59       98.58       98.57       98.57       98.57       98.57       98.57       98.58       98.59       98.60    
        98.62       98.64       98.66       98.69       98.72       98.75       98.78       98.82       98.87       98.91    
        98.96       99.01       99.05       99.06       99.07       99.08       99.10       99.11       99.12       99.13    
        99.14       99.14       99.15       99.16       99.17       99.17       99.18       99.18       99.19       99.20    
        99.20    
   3    98.40       98.27       98.14       98.01       97.88       97.75       97.62       97.50       97.37       97.25    
        97.18       97.16       97.15       97.14       97.14       97.14       97.15       97.16       97.18       97.21    
        97.24       97.28       97.32       97.37       97.43       97.49       97.57       97.65       97.73       97.83    
        97.92       98.03       98.09       98.11       98.14       98.17       98.20       98.22       98.24       98.26    
        98.27       98.29       98.31       98.32       98.33       98.35       98.36       98.37       98.38       98.39    
        98.40    
   4    97.60       97.41       97.21       97.02       96.82       96.63       96.43       96.24       96.05       95.87    
        95.76       95.73       95.71       95.70       95.70       95.70       95.71       95.73       95.76       95.80    
        95.85       95.90       95.97       96.05       96.13       96.23       96.34       96.46       96.59       96.73    
        96.88       97.04       97.13       97.17       97.21       97.25       97.30       97.33       97.36       97.39    
        97.41       97.44       97.46       97.48       97.50       97.52       97.54       97.56       97.57       97.59    
        97.60    
   5    96.80       96.54       96.28       96.02       95.76       95.50       95.24       94.98       94.73       94.48    
        94.34       94.30       94.27       94.25       94.25       94.25       94.27       94.30       94.34       94.39    
        94.45       94.52       94.61       94.71       94.83       94.96       95.10       95.26       95.44       95.63    
        95.83       96.04       96.17       96.22       96.28       96.33       96.39       96.44       96.48       96.52    
        96.55       96.58       96.62       96.64       96.67       96.70       96.72       96.74       96.76       96.78    
        96.80    
   6    96.00       95.68       95.35       95.03       94.70       94.38       94.05       93.72       93.40       93.09    
        92.90       92.85       92.82       92.80       92.79       92.80       92.82       92.85       92.90       92.96    
        93.04       93.13       93.24       93.37       93.51       93.67       93.85       94.05       94.27       94.51    
        94.77       95.04       95.20       95.27       95.34       95.41       95.49       95.55       95.60       95.65    
        95.69       95.73       95.77       95.81       95.84       95.87       95.90       95.93       95.95       95.98    
        96.00    
   7    95.20       94.81       94.43       94.04       93.65       93.25       92.86       92.46       92.07       91.68    
        91.45       91.40       91.35       91.33       91.32       91.32       91.35       91.39       91.45       91.52    
        91.61       91.72       91.85       92.00       92.17       92.36       92.58       92.82       93.09       93.38    
        93.69       94.02       94.23       94.31       94.40       94.49       94.58       94.66       94.72       94.78    
        94.84       94.89       94.93       94.98       95.02       95.05       95.09       95.12       95.15       95.17    
        95.20    
   8    94.40       93.95       93.50       93.05       92.59       92.13       91.66       91.19       90.72       90.26    
        89.99       89.92       89.87       89.84       89.83       89.84       89.86       89.91       89.98       90.06    
        90.17       90.29       90.44       90.61       90.81       91.03       91.28       91.57       91.88       92.22    
        92.60       92.99       93.24       93.34       93.45       93.56       93.68       93.78       93.85       93.92    
        93.98       94.04       94.10       94.15       94.20       94.24       94.28       94.31       94.34       94.37    
        94.40    
   9    93.60       93.09       92.58       92.06       91.54       91.01       90.47       89.92       89.37       88.83    
        88.51       88.43       88.37       88.33       88.32       88.33       88.36       88.41       88.49       88.58    
        88.70       88.84       89.01       89.20       89.42       89.67       89.96       90.28       90.64       91.04    
        91.48       91.95       92.25       92.36       92.49       92.63       92.77       92.89       92.97       93.06    
        93.13       93.20       93.27       93.33       93.38       93.43       93.47       93.50       93.54       93.57    
        93.60    
  10    92.80       92.23       91.66       91.09       90.50       89.90       89.28       88.66       88.02       87.38    
        87.01       86.91       86.84       86.80       86.79       86.80       86.84       86.90       86.98       87.08    
        87.21       87.37       87.55       87.76       88.00       88.28       88.60       88.95       89.36       89.81    
        90.32       90.88       91.23       91.37       91.53       91.70       91.87       92.01       92.11       92.20    
        92.29       92.37       92.44       92.51       92.57       92.62       92.66       92.70       92.74       92.77    
        92.80    
  11    92.00       91.38       90.76       90.12       89.47       88.80       88.11       87.40       86.66       85.91    
        85.47       85.36       85.29       85.24       85.23       85.25       85.29       85.35       85.44       85.56    
        85.70       85.87       86.06       86.29       86.55       86.85       87.19       87.58       88.03       88.54    
        89.12       89.77       90.19       90.37       90.56       90.76       90.96       91.13       91.24       91.35    
        91.45       91.55       91.63       91.70       91.76       91.82       91.86       91.90       91.94       91.97    
        92.00    
  12    91.20       90.53       89.86       89.17       88.46       87.73       86.97       86.16       85.32       84.43    
        83.91       83.78       83.70       83.66       83.65       83.67       83.71       83.79       83.89       84.01    
        84.16       84.34       84.54       84.78       85.06       85.38       85.74       86.15       86.63       87.19    
        87.84       88.61       89.12       89.34       89.58       89.82       90.06       90.25       90.39       90.52    
        90.63       90.73       90.82       90.90       90.97       91.02       91.07       91.11       91.14       91.17    
        91.20    
  13    90.40       89.69       88.97       88.23       87.48       86.69       85.86       84.97       84.01       82.95    
        82.29       82.15       82.07       82.04       82.03       82.06       82.12       82.20       82.30       82.43    
        82.59       82.78       82.99       83.24       83.53       83.86       84.23       84.66       85.16       85.75    
        86.46       87.34       88.01       88.29       88.59       88.89       89.17       89.39       89.55       89.69    
        89.81       89.93       90.02       90.11       90.18       90.24       90.29       90.32       90.35       90.38    
        90.40    
  14    89.60       88.85       88.09       87.32       86.53       85.70       84.82       83.86       82.78       81.53    
        80.59       80.46       80.40       80.38       80.39       80.43       80.49       80.58       80.69       80.83    
        80.99       81.19       81.41       81.67       81.96       82.29       82.67       83.10       83.60       84.18    
        84.90       85.87       86.83       87.23       87.61       87.96       88.29       88.54       88.72       88.88    
        89.01       89.14       89.24       89.33       89.41       89.47       89.51       89.55       89.57       89.59    
        89.60    
  15    88.80       88.02       87.23       86.43       85.61       84.76       83.85       82.86       81.74       80.40    
        79.46       79.41       79.38       79.37       79.39       79.43       79.50       79.59       79.71       79.85    
        80.02       80.21       80.44       80.70       80.99       81.32       81.70       82.12       82.61       83.16    
        83.81       84.60       85.57       86.18       86.65       87.06       87.44       87.72       87.91       88.08    
        88.23       88.36       88.48       88.57       88.65       88.71       88.75       88.78       88.79       88.80    
        88.80    
  16    88.00       87.19       86.38       85.56       84.73       83.86       82.96       81.99       80.93       79.75    
        79.07       79.03       79.01       79.01       79.03       79.08       79.15       79.24       79.36       79.50    
        79.67       79.86       80.09       80.34       80.63       80.96       81.33       81.74       82.20       82.73    
        83.32       83.98       84.68       85.27       85.76       86.20       86.60       86.91       87.12       87.30    
        87.47       87.61       87.73       87.83       87.91       87.96       88.00       88.02       88.02       88.02    
        88.00    
  17    87.20       86.37       85.54       84.71       83.87       83.02       82.13       81.21       80.24       79.21    
        78.66       78.63       78.62       78.63       78.65       78.70       78.77       78.86       78.98       79.12    
        79.29       79.48       79.70       79.95       80.23       80.55       80.91       81.30       81.74       82.23    
        82.76       83.33       83.90       84.44       84.93       85.38       85.80       86.13       86.35       86.55    
        86.73       86.88       87.00       87.11       87.18       87.24       87.27       87.28       87.27       87.24    
        87.20    
  18    86.40       85.55       84.71       83.87       83.03       82.19       81.35       80.49       79.61       78.71    
        78.24       78.22       78.21       78.22       78.25       78.30       78.37       78.46       78.58       78.72    
        78.88       79.07       79.28       79.53       79.80       80.11       80.45       80.82       81.23       81.68    
        82.16       82.66       83.17       83.66       84.13       84.59       85.02       85.37       85.61       85.82    
        86.01       86.17       86.30       86.41       86.49       86.54       86.56       86.56       86.53       86.48    
        86.40    
  19    85.60       84.73       83.87       83.02       82.19       81.38       80.58       79.78       79.00       78.21    
        77.81       77.79       77.79       77.80       77.83       77.88       77.95       78.04       78.15       78.29    
        78.44       78.63       78.84       79.07       79.34       79.63       79.95       80.31       80.69       81.10    
        81.54       81.99       82.45       82.91       83.36       83.81       84.26       84.63       84.89       85.12    
        85.32       85.49       85.63       85.73       85.81       85.86       85.88       85.87       85.82       85.73    
        85.60    
  20    84.80       83.90       83.01       82.15       81.33       80.55       79.80       79.08       78.38       77.70    
        77.36       77.35       77.35       77.36       77.39       77.44       77.51       77.59       77.70       77.83    
        77.99       78.16       78.36       78.59       78.84       79.12       79.43       79.76       80.12       80.50    
        80.90       81.31       81.73       82.16       82.59       83.02       83.48       83.92       84.21       84.46    
        84.66       84.84       84.98       85.09       85.17       85.22       85.24       85.22       85.15       85.02    
        84.80    
  21    84.00       83.04       82.12       81.25       80.44       79.69       78.99       78.34       77.74       77.18    
        76.90       76.89       76.89       76.91       76.94       76.98       77.05       77.13       77.23       77.36    
        77.50       77.67       77.87       78.08       78.32       78.59       78.88       79.19       79.52       79.87    
        80.24       80.62       81.02       81.41       81.81       82.21       82.63       83.06       83.38       83.64    
        83.85       84.03       84.18       84.29       84.38       84.43       84.45       84.42       84.36       84.23    
        84.00    
  22    83.20       82.16       81.18       80.29       79.49       78.77       78.13       77.56       77.06       76.63    
        76.43       76.42       76.42       76.44       76.46       76.50       76.56       76.64       76.74       76.86    
        77.00       77.16       77.35       77.55       77.78       78.03       78.30       78.59       78.91       79.23    
        79.58       79.93       80.29       80.66       81.03       81.39       81.76       82.12       82.42       82.67    
        82.89       83.07       83.22       83.34       83.43       83.49       83.51       83.50       83.44       83.34    
        83.20    
  23    82.40       81.21       80.16       79.25       78.46       77.78       77.20       76.71       76.32       76.04    
        75.94       75.94       75.94       75.95       75.97       76.01       76.06       76.14       76.23       76.34    
        76.47       76.63       76.80       77.00       77.21       77.45       77.71       77.98       78.27       78.58    
        78.90       79.23       79.56       79.90       80.24       80.58       80.91       81.22       81.50       81.75    
        81.96       82.15       82.30       82.42       82.52       82.58       82.61       82.61       82.57       82.50    
        82.40    
  24    81.60       80.11       78.99       78.08       77.32       76.68       76.16       75.76       75.48       75.37    
        75.46       75.46       75.46       75.46       75.47       75.50       75.54       75.61       75.69       75.80    
        75.92       76.07       76.24       76.42       76.63       76.85       77.09       77.35       77.63       77.91    
        78.21       78.52       78.83       79.14       79.46       79.77       80.07       80.36       80.62       80.86    
        81.07       81.25       81.40       81.53       81.63       81.71       81.75       81.76       81.74       81.68    
        81.60    
  25    80.80       79.35       78.26       77.38       76.65       76.05       75.56       75.19       74.95       74.86    
        74.97       74.98       74.97       74.95       74.95       74.97       75.01       75.06       75.14       75.24    
        75.36       75.50       75.65       75.83       76.02       76.24       76.46       76.71       76.97       77.23    
        77.51       77.80       78.09       78.39       78.68       78.97       79.25       79.51       79.76       79.99    
        80.20       80.38       80.53       80.67       80.78       80.86       80.92       80.94       80.94       80.89    
        80.80    
  26    80.00       78.93       77.98       77.16       76.46       75.88       75.39       75.01       74.74       74.59    
        74.54       74.48       74.42       74.37       74.35       74.35       74.38       74.42       74.49       74.59    
        74.70       74.83       74.97       75.14       75.33       75.52       75.74       75.97       76.21       76.46    
        76.72       76.99       77.26       77.53       77.81       78.08       78.34       78.59       78.83       79.04    
        79.24       79.43       79.59       79.73       79.84       79.94       80.01       80.06       80.08       80.06    
        80.00    
  27    79.20       78.37       77.57       76.83       76.17       75.59       75.11       74.72       74.43       74.21    
        74.06       73.92       73.79       73.70       73.65       73.64       73.65       73.69       73.76       73.84    
        73.94       74.06       74.20       74.36       74.53       74.72       74.92       75.13       75.36       75.59    
        75.84       76.08       76.34       76.59       76.84       77.09       77.34       77.57       77.80       78.01    
        78.21       78.39       78.55       78.70       78.83       78.94       79.03       79.11       79.16       79.19    
        79.20    
  28    78.40       77.79       77.09       76.41       75.78       75.22       74.74       74.35       74.03       73.77    
        73.56       73.36       73.11       72.99       72.92       72.90       72.91       72.94       73.00       73.07    
        73.17       73.28       73.41       73.56       73.72       73.90       74.09       74.29       74.50       74.72    
        74.94       75.17       75.41       75.65       75.88       76.12       76.35       76.57       76.79       76.99    
        77.18       77.37       77.53       77.69       77.83       77.96       78.07       78.17       78.26       78.34    
        78.40    
  29    77.60       77.03       76.37       75.71       75.09       74.54       74.06       73.66       73.33       73.05    
        72.81       72.57       72.32       72.21       72.15       72.13       72.13       72.16       72.22       72.29    
        72.38       72.49       72.61       72.75       72.90       73.07       73.24       73.43       73.63       73.83    
        74.04       74.26       74.48       74.70       74.93       75.15       75.36       75.58       75.78       75.98    
        76.17       76.36       76.53       76.69       76.85       76.99       77.13       77.26       77.38       77.49    
        77.60    
  30    76.80       76.10       75.40       74.73       74.12       73.56       73.08       72.67       72.33       72.05    
        71.82       71.61       71.46       71.39       71.35       71.33       71.34       71.37       71.42       71.48    
        71.57       71.67       71.79       71.92       72.07       72.22       72.39       72.57       72.75       72.94    
        73.14       73.34       73.55       73.76       73.97       74.18       74.38       74.59       74.79       74.98    
        75.17       75.36       75.53       75.71       75.87       76.03       76.19       76.35       76.50       76.65    
        76.80    
  31    76.00       75.18       74.41       73.70       73.07       72.51       72.03       71.62       71.28       71.01    
        70.80       70.65       70.58       70.54       70.52       70.51       70.52       70.55       70.60       70.66    
        70.75       70.84       70.96       71.08       71.22       71.37       71.53       71.69       71.87       72.05    
        72.23       72.42       72.62       72.81       73.01       73.21       73.41       73.61       73.80       73.99    
        74.18       74.36       74.55       74.73       74.90       75.08       75.26       75.44       75.62       75.81    
        76.00    
  32    75.20       74.20       73.35       72.60       71.95       71.39       70.90       70.50       70.16       69.90    
        69.72       69.63       69.68       69.68       69.67       69.67       69.68       69.71       69.76       69.82    
        69.91       70.00       70.11       70.23       70.36       70.51       70.66       70.81       70.98       71.14    
        71.32       71.50       71.68       71.87       72.05       72.24       72.43       72.62       72.81       73.00    
        73.19       73.37       73.56       73.75       73.93       74.12       74.32       74.53       74.74       74.97    
        75.20    
  33    74.40       73.36       72.47       71.71       71.05       70.48       70.00       69.60       69.27       69.02    
        68.84       68.76       68.82       68.82       68.81       68.81       68.82       68.86       68.90       68.97    
        69.05       69.15       69.25       69.37       69.50       69.63       69.78       69.92       70.08       70.24    
        70.40       70.57       70.74       70.92       71.10       71.28       71.46       71.64       71.83       72.01    
        72.20       72.38       72.57       72.76       72.96       73.16       73.38       73.61       73.85       74.12    
        74.40    
  34    73.60       72.63       71.77       71.01       70.36       69.80       69.32       68.92       68.60       68.34    
        68.16       68.05       68.00       67.97       67.95       67.94       67.95       67.98       68.03       68.10    
        68.18       68.28       68.39       68.50       68.63       68.76       68.89       69.03       69.18       69.33    
        69.48       69.64       69.80       69.97       70.14       70.31       70.48       70.66       70.84       71.02    
        71.21       71.39       71.58       71.78       71.98       72.19       72.42       72.67       72.95       73.26    
        73.60    
  35    72.80       71.82       70.95       70.20       69.57       69.02       68.56       68.18       67.86       67.60    
        67.41       67.27       67.18       67.11       67.07       67.06       67.06       67.09       67.14       67.21    
        67.30       67.40       67.51       67.62       67.75       67.87       68.00       68.13       68.27       68.41    
        68.55       68.70       68.85       69.01       69.17       69.34       69.50       69.68       69.85       70.03    
        70.21       70.40       70.59       70.78       70.99       71.21       71.44       71.70       72.00       72.36    
        72.80    
  36    72.00       70.88       70.01       69.29       68.68       68.17       67.73       67.36       67.05       66.80    
        66.59       66.44       66.32       66.23       66.18       66.15       66.15       66.17       66.23       66.31    
        66.40       66.51       66.62       66.74       66.86       66.98       67.10       67.23       67.36       67.49    
        67.62       67.76       67.91       68.05       68.21       68.36       68.52       68.69       68.86       69.03    
        69.21       69.40       69.58       69.78       69.99       70.20       70.44       70.69       71.00       71.39    
        72.00    
  37    71.20       70.14       69.31       68.64       68.07       67.58       67.17       66.81       66.51       66.26    
        66.05       65.89       65.76       65.66       65.59       65.56       65.55       65.57       65.64       65.74    
        65.85       65.97       66.09       66.21       66.33       66.45       66.57       66.69       66.81       66.93    
        67.06       67.20       67.33       67.48       67.62       67.77       67.93       68.09       68.26       68.43    
        68.61       68.79       68.98       69.17       69.38       69.59       69.82       70.06       70.34       70.68    
        71.20    
  38    70.40       69.59       68.87       68.26       67.72       67.26       66.86       66.52       66.23       65.99    
        65.78       65.62       65.48       65.39       65.32       65.28       65.27       65.29       65.35       65.46    
        65.65       65.79       65.92       66.04       66.15       66.27       66.39       66.50       66.62       66.75    
        66.87       67.00       67.14       67.28       67.42       67.57       67.73       67.89       68.06       68.23    
        68.40       68.59       68.77       68.96       69.16       69.37       69.59       69.82       70.06       70.28    
        70.40    
  39    69.60       68.95       68.34       67.79       67.31       66.88       66.51       66.19       65.91       65.67    
        65.48       65.31       65.18       65.08       65.01       64.97       64.95       64.96       65.00       65.08    
        65.27       65.43       65.55       65.67       65.77       65.88       65.99       66.10       66.21       66.33    
        66.45       66.57       66.70       66.84       66.98       67.13       67.28       67.44       67.60       67.77    
        67.95       68.13       68.31       68.49       68.68       68.88       69.08       69.28       69.47       69.61    
        69.60    
  40    68.80       68.26       67.74       67.26       66.83       66.44       66.10       65.80       65.54       65.32    
        65.13       64.98       64.85       64.75       64.68       64.63       64.61       64.61       64.63       64.67    
        64.77       64.90       65.00       65.10       65.19       65.29       65.38       65.48       65.58       65.68    
        65.79       65.91       66.03       66.16       66.29       66.43       66.58       66.74       66.90       67.07    
        67.24       67.41       67.59       67.76       67.94       68.12       68.29       68.46       68.61       68.73    
        68.80    
  41    68.00       67.54       67.10       66.69       66.31       65.96       65.65       65.38       65.14       64.94    
        64.76       64.61       64.49       64.39       64.32       64.27       64.24       64.22       64.23       64.25    
        64.31       64.38       64.46       64.53       64.61       64.69       64.77       64.85       64.94       65.03    
        65.13       65.24       65.35       65.47       65.59       65.73       65.88       66.03       66.20       66.37    
        66.53       66.70       66.87       67.03       67.19       67.35       67.51       67.66       67.79       67.91    
        68.00    
  42    67.20       66.81       66.44       66.08       65.75       65.45       65.17       64.93       64.71       64.52    
        64.36       64.22       64.11       64.01       63.94       63.89       63.85       63.83       63.82       63.82    
        63.84       63.87       63.92       63.97       64.02       64.09       64.15       64.22       64.30       64.38    
        64.47       64.56       64.66       64.77       64.89       65.02       65.16       65.32       65.49       65.66    
        65.83       65.99       66.15       66.30       66.45       66.59       66.73       66.87       66.99       67.10    
        67.20    
  43    66.40       66.07       65.76       65.45       65.16       64.90       64.66       64.44       64.25       64.08    
        63.93       63.80       63.70       63.61       63.54       63.49       63.45       63.42       63.40       63.38    
        63.36       63.36       63.37       63.40       63.43       63.48       63.53       63.59       63.65       63.72    
        63.80       63.88       63.97       64.06       64.17       64.29       64.43       64.59       64.78       64.96    
        65.13       65.28       65.43       65.58       65.71       65.84       65.97       66.09       66.20       66.30    
        66.40    
  44    65.60       65.33       65.06       64.80       64.56       64.33       64.12       63.93       63.76       63.61    
        63.48       63.37       63.27       63.19       63.13       63.07       63.03       63.00       62.97       62.93    
        62.86       62.82       62.81       62.82       62.84       62.87       62.90       62.95       63.00       63.05    
        63.12       63.19       63.26       63.35       63.44       63.55       63.68       63.84       64.07       64.27    
        64.43       64.59       64.73       64.86       64.98       65.10       65.21       65.31       65.41       65.51    
        65.60    
  45    64.80       64.57       64.35       64.14       63.93       63.74       63.56       63.40       63.26       63.13    
        63.02       62.92       62.83       62.76       62.70       62.65       62.61       62.57       62.54       62.50    
        62.42       62.37       62.34       62.34       62.35       62.37       62.40       62.43       62.47       62.52    
        62.57       62.63       62.69       62.76       62.85       62.94       63.05       63.18       63.40       63.60    
        63.76       63.90       64.03       64.14       64.25       64.36       64.45       64.54       64.63       64.72    
        64.80    
  46    64.00       63.82       63.64       63.46       63.29       63.14       62.99       62.86       62.74       62.63    
        62.53       62.45       62.38       62.32       62.27       62.22       62.18       62.15       62.12       62.08    
        62.04       62.00       61.98       61.97       61.97       61.99       62.01       62.04       62.07       62.11    
        62.15       62.20       62.26       62.32       62.39       62.47       62.56       62.66       62.81       62.97    
        63.11       63.23       63.34       63.44       63.53       63.62       63.70       63.78       63.86       63.93    
        64.00    
  47    63.20       63.06       62.91       62.78       62.65       62.52       62.41       62.30       62.20       62.12    
        62.04       61.97       61.92       61.87       61.82       61.78       61.75       61.72       61.70       61.67    
        61.64       61.61       61.60       61.59       61.59       61.60       61.62       61.64       61.66       61.69    
        61.73       61.77       61.81       61.86       61.92       61.98       62.05       62.13       62.24       62.36    
        62.47       62.57       62.66       62.74       62.82       62.89       62.96       63.02       63.08       63.14    
        63.20    
  48    62.40       62.29       62.19       62.09       61.99       61.90       61.81       61.73       61.66       61.60    
        61.54       61.49       61.44       61.40       61.37       61.34       61.32       61.29       61.27       61.26    
        61.24       61.22       61.20       61.20       61.20       61.21       61.22       61.23       61.25       61.27    
        61.30       61.33       61.36       61.40       61.45       61.49       61.54       61.60       61.67       61.76    
        61.84       61.92       61.99       62.05       62.11       62.16       62.21       62.26       62.31       62.36    
        62.40    
  49    61.60       61.53       61.46       61.39       61.33       61.27       61.21       61.16       61.11       61.07    
        61.03       61.00       60.97       60.94       60.92       60.90       60.88       60.86       60.85       60.84    
        60.83       60.81       60.81       60.80       60.80       60.81       60.81       60.82       60.84       60.85    
        60.87       60.89       60.91       60.94       60.97       61.00       61.03       61.07       61.11       61.17    
        61.23       61.28       61.32       61.36       61.40       61.44       61.48       61.51       61.54       61.57    
        61.60    
  50    60.80       60.77       60.73       60.70       60.67       60.64       60.61       60.58       60.56       60.54    
        60.52       60.50       60.48       60.47       60.46       60.45       60.44       60.43       60.43       60.42    
        60.41       60.41       60.40       60.40       60.40       60.40       60.41       60.41       60.42       60.43    
        60.44       60.45       60.46       60.47       60.48       60.50       60.52       60.53       60.56       60.59    
        60.61       60.64       60.66       60.68       60.70       60.72       60.74       60.75       60.77       60.78    
        60.80    
  51    60.00       60.00       60.00       60.00       60.00       60.00       60.00       60.00       60.00       60.00    
        60.00       60.00       60.00       60.00       60.00       60.00       60.00       60.00       60.00       60.00    
        60.00       60.00       60.00       60.00       60.00       60.00       60.00       60.00       60.00       60.00    
        60.00       60.00       60.00       60.00       60.00       60.00       60.00       60.00       60.00       60.00    
        60.00       60.00       60.00       60.00       60.00       60.00       60.00       60.00       60.00       60.00    
        60.00    

 HEAD WILL BE SAVED ON UNIT   51 AT END OF TIME STEP   1, STRESS PERIOD    2
1
  VOLUMETRIC BUDGET FOR ENTIRE MODEL AT END OF TIME STEP  1 IN STRESS PERIOD   2
  ------------------------------------------------------------------------------

     CUMULATIVE VOLUMES      L**3       RATES FOR THIS TIME STEP      L**3/T
     ------------------                 ------------------------

[...]
        82.40    
  24    81.60       80.11       78.99       78.08       77.32       76.68       76.16       75.76       75.48       75.37    
        75.46       75.46       75.46       75.46       75.47       75.50       75.54       75.61       75.69       75.80    
        75.92       76.07       76.24       76.42       76.63       76.85       77.09       77.35       77.63       77.91    
        78.21       78.52       78.83       79.14       79.46       79.77       80.07       80.36       80.62       80.86    
        81.07       81.25       81.40       81.53       81.63       81.71       81.75       81.76       81.74       81.68    
        81.60    
  25    80.80       79.35       78.26       77.38       76.65       76.05       75.56       75.19       74.95       74.86    
        74.97       74.98       74.97       74.95       74.95       74.97       75.01       75.06       75.14       75.24    
        75.36       75.50       75.65       75.83       76.02       76.24       76.46       76.71       76.97       77.23    
        77.51       77.80       78.09       78.39       78.68       78.97       79.25       79.51       79.76       79.99    
        80.20       80.38       80.53       80.67       80.78       80.86       80.92       80.94       80.94       80.89    
        80.80    
  26    80.00       78.93       77.98       77.16       76.46       75.88       75.39       75.01       74.74       74.59    
        74.54       74.48       74.42       74.37       74.35       74.35       74.38       74.42       74.49       74.59    
        74.70       74.83       74.97       75.14       75.33       75.52       75.74       75.97       76.21       76.46    
        76.72       76.99       77.26       77.53       77.81       78.08       78.34       78.59       78.83       79.04    
        79.24       79.43       79.59       79.73       79.84       79.94       80.01       80.06       80.08       80.06    
        80.00    
  27    79.20       78.37       77.57       76.83       76.17       75.59       75.11       74.72       74.43       74.21    
        74.06       73.92       73.79       73.70       73.65       73.64       73.65       73.69       73.76       73.84    
        73.94       74.06       74.20       74.36       74.53       74.72       74.92       75.13       75.36       75.59    
        75.84       76.08       76.34       76.59       76.84       77.09       77.34       77.57       77.80       78.01    
        78.21       78.39       78.55       78.70       78.83       78.94       79.03       79.11       79.16       79.19    
        79.20    
  28    78.40       77.79       77.09       76.41       75.78       75.22       74.74       74.35       74.03       73.77    
        73.56       73.36       73.11       72.99       72.92       72.90       72.91       72.94       73.00       73.07    
        73.17       73.28       73.41       73.56       73.72       73.90       74.09       74.29       74.50       74.72    
        74.94       75.17       75.41       75.65       75.88       76.12       76.35       76.57       76.79       76.99    
        77.18       77.37       77.53       77.69       77.83       77.96       78.07       78.17       78.26       78.34    
        78.40    
  29    77.60       77.03       76.37       75.71       75.09       74.54       74.06       73.66       73.33       73.05    
        72.81       72.57       72.32       72.21       72.15       72.13       72.13       72.16       72.22       72.29    
        72.38       72.49       72.61       72.75       72.90       73.07       73.24       73.43       73.63       73.83    
        74.04       74.26       74.48       74.70       74.93       75.15       75.36       75.58       75.78       75.98    
        76.17       76.36       76.53       76.69       76.85       76.99       77.13       77.26       77.38       77.49    
        77.60    
  30    76.80       76.10       75.40       74.73       74.12       73.56       73.08       72.67       72.33       72.05    
        71.82       71.61       71.46       71.39       71.35       71.33       71.34       71.37       71.42       71.48    
        71.57       71.67       71.79       71.92       72.07       72.22       72.39       72.57       72.75       72.94    
        73.14       73.34       73.55       73.76       73.97       74.18       74.38       74.59       74.79       74.98    
        75.17       75.36       75.53       75.71       75.87       76.03       76.19       76.35       76.50       76.65    
        76.80    
  31    76.00       75.18       74.41       73.70       73.07       72.51       72.03       71.62       71.28       71.01    
        70.80       70.65       70.58       70.54       70.52       70.51       70.52       70.55       70.60       70.66    
        70.75       70.84       70.96       71.08       71.22       71.37       71.53       71.69       71.87       72.05    
        72.23       72.42       72.62       72.81       73.01       73.21       73.41       73.61       73.80       73.99    
        74.18       74.36       74.55       74.73       74.90       75.08       75.26       75.44       75.62       75.81    
        76.00    
  32    75.20       74.20       73.35       72.60       71.95       71.39       70.90       70.50       70.16       69.90    
        69.72       69.63       69.68       69.68       69.67       69.67       69.68       69.71       69.76       69.82    
        69.91       70.00       70.11       70.23       70.36       70.51       70.66       70.81       70.98       71.14    
        71.32       71.50       71.68       71.87       72.05       72.24       72.43       72.62       72.81       73.00    
        73.19       73.37       73.56       73.75       73.93       74.12       74.32       74.53       74.74       74.97    
        75.20    
  33    74.40       73.36       72.47       71.71       71.05       70.48       70.00       69.60       69.27       69.02    
        68.84       68.76       68.82       68.82       68.81       68.81       68.82       68.86       68.90       68.97    
        69.05       69.15       69.25       69.37       69.50       69.63       69.78       69.92       70.08       70.24    
        70.40       70.57       70.74       70.92       71.10       71.28       71.46       71.64       71.83       72.01    
        72.20       72.38       72.57       72.76       72.96       73.16       73.38       73.61       73.85       74.12    
        74.40    
  34    73.60       72.63       71.77       71.01       70.36       69.80       69.32       68.92       68.60       68.34    
        68.16       68.05       68.00       67.97       67.95       67.94       67.95       67.98       68.03       68.10    
        68.18       68.28       68.39       68.50       68.63       68.76       68.89       69.03       69.18       69.33    
        69.48       69.64       69.80       69.97       70.14       70.31       70.48       70.66       70.84       71.02    
        71.21       71.39       71.58       71.78       71.98       72.19       72.42       72.67       72.95       73.26    
        73.60    
  35    72.80       71.82       70.95       70.20       69.57       69.02       68.56       68.18       67.86       67.60    
        67.41       67.27       67.18       67.11       67.07       67.06       67.06       67.09       67.14       67.21    
        67.30       67.40       67.51       67.62       67.75       67.87       68.00       68.13       68.27       68.41    
        68.55       68.70       68.85       69.01       69.17       69.34       69.50       69.68       69.85       70.03    
        70.21       70.40       70.59       70.78       70.99       71.21       71.44       71.70       72.00       72.36    
        72.80    
  36    72.00       70.88       70.01       69.29       68.68       68.17       67.73       67.36       67.05       66.80    
        66.59       66.44       66.32       66.23       66.18       66.15       66.15       66.17       66.23       66.31    
        66.40       66.51       66.62       66.74       66.86       66.98       67.10       67.23       67.36       67.49    
        67.62       67.76       67.91       68.05       68.21       68.36       68.52       68.69       68.86       69.03    
        69.21       69.40       69.58       69.78       69.99       70.20       70.44       70.69       71.00       71.39    
        72.00    
  37    71.20       70.14       69.31       68.64       68.07       67.58       67.17       66.81       66.51       66.26    
        66.05       65.89       65.76       65.66       65.59       65.56       65.55       65.57       65.64       65.74    
        65.85       65.97       66.09       66.21       66.33       66.45       66.57       66.69       66.81       66.93    
        67.06       67.20       67.33       67.48       67.62       67.77       67.93       68.09       68.26       68.43    
        68.61       68.79       68.98       69.17       69.38       69.59       69.82       70.06       70.34       70.68    
        71.20    
  38    70.40       69.59       68.87       68.26       67.72       67.26       66.86       66.52       66.23       65.99    
        65.78       65.62       65.48       65.39       65.32       65.28       65.27       65.29       65.35       65.46    
        65.65       65.79       65.92       66.04       66.15       66.27       66.39       66.50       66.62       66.75    
        66.87       67.00       67.14       67.28       67.42       67.57       67.73       67.89       68.06       68.23    
        68.40       68.59       68.77       68.96       69.16       69.37       69.59       69.82       70.06       70.28    
        70.40    
  39    69.60       68.95       68.34       67.79       67.31       66.88       66.51       66.19       65.91       65.67    
        65.48       65.31       65.18       65.08       65.01       64.97       64.95       64.96       65.00       65.08    
        65.27       65.43       65.55       65.67       65.77       65.88       65.99       66.10       66.21       66.33    
        66.45       66.57       66.70       66.84       66.98       67.13       67.28       67.44       67.60       67.77    
        67.95       68.13       68.31       68.49       68.68       68.88       69.08       69.28       69.47       69.61    
        69.60    
  40    68.80       68.26       67.74       67.26       66.83       66.44       66.10       65.80       65.54       65.32    
        65.13       64.98       64.85       64.75       64.68       64.63       64.61       64.61       64.63       64.67    
        64.77       64.90       65.00       65.10       65.19       65.29       65.38       65.48       65.58       65.68    
        65.79       65.91       66.03       66.16       66.29       66.43       66.58       66.74       66.90       67.07    
        67.24       67.41       67.59       67.76       67.94       68.12       68.29       68.46       68.61       68.73    
        68.80    
  41    68.00       67.54       67.10       66.69       66.31       65.96       65.65       65.38       65.14       64.94    
        64.76       64.61       64.49       64.39       64.32       64.27       64.24       64.22       64.23       64.25    
        64.31       64.38       64.46       64.53       64.61       64.69       64.77       64.85       64.94       65.03    
        65.13       65.24       65.35       65.47       65.59       65.73       65.88       66.03       66.20       66.37    
        66.53       66.70       66.87       67.03       67.19       67.35       67.51       67.66       67.79       67.91    
        68.00    
  42    67.20       66.81       66.44       66.08       65.75       65.45       65.17       64.93       64.71       64.52    
        64.36       64.22       64.11       64.01       63.94       63.89       63.85       63.83       63.82       63.82    
        63.84       63.87       63.92       63.97       64.02       64.09       64.15       64.22       64.30       64.38    
        64.47       64.56       64.66       64.77       64.89       65.02       65.16       65.32       65.49       65.66    
        65.83       65.99       66.15       66.30       66.45       66.59       66.73       66.87       66.99       67.10    
        67.20    
  43    66.40       66.07       65.76       65.45       65.16       64.90       64.66       64.44       64.25       64.08    
        63.93       63.80       63.70       63.61       63.54       63.49       63.45       63.42       63.40       63.38    
        63.36       63.36       63.37       63.40       63.43       63.48       63.53       63.59       63.65       63.72    
        63.80       63.88       63.97       64.06       64.17       64.29       64.43       64.59       64.78       64.96    
        65.13       65.28       65.43       65.58       65.71       65.84       65.97       66.09       66.20       66.30    
        66.40    
  44    65.60       65.33       65.06       64.80       64.56       64.33       64.12       63.93       63.76       63.61    
        63.48       63.37       63.27       63.19       63.13       63.07       63.03       63.00       62.97       62.93    
        62.86       62.82       62.81       62.82       62.84       62.87       62.90       62.95       63.00       63.05    
        63.12       63.19       63.26       63.35       63.44       63.55       63.68       63.84       64.07       64.27    
        64.43       64.59       64.73       64.86       64.98       65.10       65.21       65.31       65.41       65.51    
        65.60    
  45    64.80       64.57       64.35       64.14       63.93       63.74       63.56       63.40       63.26       63.13    
        63.02       62.92       62.83       62.76       62.70       62.65       62.61       62.57       62.54       62.50    
        62.42       62.37       62.34       62.34       62.35       62.37       62.40       62.43       62.47       62.52    
        62.57       62.63       62.69       62.76       62.85       62.94       63.05       63.18       63.40       63.60    
        63.76       63.90       64.03       64.14       64.25       64.36       64.45       64.54       64.63       64.72    
        64.80    
  46    64.00       63.82       63.64       63.46       63.29       63.14       62.99       62.86       62.74       62.63    
        62.53       62.45       62.38       62.32       62.27       62.22       62.18       62.15       62.12       62.08    
        62.04       62.00       61.98       61.97       61.97       61.99       62.01       62.04       62.07       62.11    
        62.15       62.20       62.26       62.32       62.39       62.47       62.56       62.66       62.81       62.97    
        63.11       63.23       63.34       63.44       63.53       63.62       63.70       63.78       63.86       63.93    
        64.00    
  47    63.20       63.06       62.91       62.78       62.65       62.52       62.41       62.30       62.20       62.12    
        62.04       61.97       61.92       61.87       61.82       61.78       61.75       61.72       61.70       61.67    
        61.64       61.61       61.60       61.59       61.59       61.60       61.62       61.64       61.66       61.69    
        61.73       61.77       61.81       61.86       61.92       61.98       62.05       62.13       62.24       62.36    
        62.47       62.57       62.66       62.74       62.82       62.89       62.96       63.02       63.08       63.14    
        63.20    
  48    62.40       62.29       62.19       62.09       61.99       61.90       61.81       61.73       61.66       61.60    
        61.54       61.49       61.44       61.40       61.37       61.34       61.32       61.29       61.27       61.26    
        61.24       61.22       61.20       61.20       61.20       61.21       61.22       61.23       61.25       61.27    
        61.30       61.33       61.36       61.40       61.45       61.49       61.54       61.60       61.67       61.76    
        61.84       61.92       61.99       62.05       62.11       62.16       62.21       62.26       62.31       62.36    
        62.40    
  49    61.60       61.53       61.46       61.39       61.33       61.27       61.21       61.16       61.11       61.07    
        61.03       61.00       60.97       60.94       60.92       60.90       60.88       60.86       60.85       60.84    
        60.83       60.81       60.81       60.80       60.80       60.81       60.81       60.82       60.84       60.85    
        60.87       60.89       60.91       60.94       60.97       61.00       61.03       61.07       61.11       61.17    
        61.23       61.28       61.32       61.36       61.40       61.44       61.48       61.51       61.54       61.57    
        61.60    
  50    60.80       60.77       60.73       60.70       60.67       60.64       60.61       60.58       60.56       60.54    
        60.52       60.50       60.48       60.47       60.46       60.45       60.44       60.43       60.43       60.42    
        60.41       60.41       60.40       60.40       60.40       60.40       60.41       60.41       60.42       60.43    
        60.44       60.45       60.46       60.47       60.48       60.50       60.52       60.53       60.56       60.59    
        60.61       60.64       60.66       60.68       60.70       60.72       60.74       60.75       60.77       60.78    
        60.80    
  51    60.00       60.00       60.00       60.00       60.00       60.00       60.00       60.00       60.00       60.00    
        60.00       60.00       60.00       60.00       60.00       60.00       60.00       60.00       60.00       60.00    
        60.00       60.00       60.00       60.00       60.00       60.00       60.00       60.00       60.00       60.00    
        60.00       60.00       60.00       60.00       60.00       60.00       60.00       60.00       60.00       60.00    
        60.00       60.00       60.00       60.00       60.00       60.00       60.00       60.00       60.00       60.00    
        60.00    

 HEAD WILL BE SAVED ON UNIT   51 AT END OF TIME STEP   1, STRESS PERIOD   11
1
  VOLUMETRIC BUDGET FOR ENTIRE MODEL AT END OF TIME STEP  1 IN STRESS PERIOD  11
  ------------------------------------------------------------------------------

     CUMULATIVE VOLUMES      L**3       RATES FOR THIS TIME STEP      L**3/T
     ------------------                 ------------------------

           IN:                                      IN:
           ---                                      ---
             STORAGE =           0.0000               STORAGE =           0.0000
       CONSTANT HEAD =   878562368.0000         CONSTANT HEAD =      218670.2190

            TOTAL IN =   878562368.0000              TOTAL IN =      218670.2190

          OUT:                                     OUT:
          ----                                     ----
             STORAGE =           0.0000               STORAGE =           0.0000
       CONSTANT HEAD =   878562368.0000         CONSTANT HEAD =      218670.2190

           TOTAL OUT =   878562368.0000             TOTAL OUT =      218670.2190

            IN - OUT =           0.0000              IN - OUT =           0.0000

 PERCENT DISCREPANCY =           0.00     PERCENT DISCREPANCY =           0.00






          TIME SUMMARY AT END OF TIME STEP   1 IN STRESS PERIOD   11
                    SECONDS     MINUTES      HOURS       DAYS        YEARS
                    -----------------------------------------------------------
   TIME STEP LENGTH 3.15576E+07 5.25960E+05  8766.0      365.25      1.0000    
 STRESS PERIOD TIME 3.15576E+07 5.25960E+05  8766.0      365.25      1.0000    
         TOTAL TIME 3.47134E+08 5.78556E+06  96426.      4017.8      11.000    
1
